* NGSPICE file created from clock_final_2.ext - technology: ihp-sg13g2

.subckt clock_final_2 VDD VSS Vcon Vout
X0 Vout.t0 a_9620_3460.t3 VDD.t1 VDD.t0 sg13_lv_pmos ad=1.088p pd=7.08u as=1.088p ps=7.08u w=3.2u l=0.13u
X1 a_9620_3460.t0 a_1519_1531.t4 VDD.t2 VDD.t0 sg13_lv_pmos ad=1.088p pd=7.08u as=1.088p ps=7.08u w=3.2u l=0.13u
X2 VDD.t10 a_379_2010.t1 a_379_2010.t2 VDD.t6 sg13_lv_pmos ad=1.02p pd=6.68u as=1.02p ps=6.68u w=3u l=9u
X3 a_6064_725.t0 a_4264_1495.t2 a_1587_1495.t1 VSS.t1 sg13_lv_nmos ad=0.51p pd=3.68u as=0.51p ps=3.68u w=1.5u l=9u
X4 a_9620_3460.t1 a_1519_1531.t3 VSS.t5 VSS.t4 sg13_lv_nmos ad=0.51p pd=3.68u as=0.51p ps=3.68u w=1.5u l=0.13u
X5 a_8732_725.t0 Vcon.t0 VSS.t10 VSS.t9 sg13_lv_nmos ad=0.51p pd=3.68u as=0.51p ps=3.68u w=1.5u l=9u
X6 a_6064_3981.t1 a_379_2010.t4 VDD.t9 VDD.t5 sg13_lv_pmos ad=1.02p pd=6.68u as=1.02p ps=6.68u w=3u l=9u
X7 a_3387_2714.t1 a_1587_1495.t3 a_1519_1531.t0 VDD.t4 sg13_lv_pmos ad=1.02p pd=6.68u as=1.02p ps=6.68u w=3u l=9u
X8 a_8732_2713.t1 a_1519_1531.t5 a_4264_1495.t0 VDD.t3 sg13_lv_pmos ad=1.02p pd=6.68u as=1.02p ps=6.68u w=3u l=9u
X9 a_3387_725.t0 a_1587_1495.t2 a_1519_1531.t1 VSS.t0 sg13_lv_nmos ad=0.51p pd=3.68u as=0.51p ps=3.68u w=1.5u l=9u
X10 a_3387_725.t1 Vcon.t2 VSS.t6 VSS.t0 sg13_lv_nmos ad=0.51p pd=3.68u as=0.51p ps=3.68u w=1.5u l=9u
X11 a_8732_2713.t0 a_379_2010.t3 VDD.t8 VDD.t3 sg13_lv_pmos ad=1.02p pd=6.68u as=1.02p ps=6.68u w=3u l=9u
X12 a_6064_725.t1 Vcon.t1 VSS.t11 VSS.t1 sg13_lv_nmos ad=0.51p pd=3.68u as=0.51p ps=3.68u w=1.5u l=9u
X13 a_3387_2714.t0 a_379_2010.t5 VDD.t7 VDD.t6 sg13_lv_pmos ad=1.02p pd=6.68u as=1.02p ps=6.68u w=3u l=9u
X14 a_6064_3981.t0 a_4264_1495.t3 a_1587_1495.t0 VDD.t5 sg13_lv_pmos ad=1.02p pd=6.68u as=1.02p ps=6.68u w=3u l=9u
X15 a_379_2010.t0 Vcon.t3 VSS.t8 VSS.t7 sg13_lv_nmos ad=0.51p pd=3.68u as=0.51p ps=3.68u w=1.5u l=9u
X16 a_8732_725.t1 a_1519_1531.t2 a_4264_1495.t1 VSS.t9 sg13_lv_nmos ad=0.51p pd=3.68u as=0.51p ps=3.68u w=1.5u l=9u
X17 Vout.t1 a_9620_3460.t2 VSS.t3 VSS.t2 sg13_lv_nmos ad=0.51p pd=3.68u as=0.51p ps=3.68u w=1.5u l=0.13u
C0 VDD Vout 0.62781f
C1 VDD m2_9092_2412# 0.3013f
R0 Vcon.n0 Vcon.t0 30.3673
R1 Vcon.n0 Vcon.t1 24.4977
R2 Vcon.n1 Vcon.t2 24.4977
R3 Vcon.n2 Vcon.n1 24.4401
R4 Vcon.n2 Vcon.t3 24.0005
R5 Vcon.n1 Vcon.n0 5.8921
R6 Vcon Vcon.n2 0.6429
R7 Vout.n0 Vout.t1 14.6566
R8 Vout.n0 Vout.t0 12.8979
R9 Vout Vout.n0 0.5549
R10 VDD.n281 VDD.n148 17.0005
R11 VDD.n278 VDD.n277 17.0005
R12 VDD.n278 VDD.n275 17.0005
R13 VDD.n278 VDD.n273 17.0005
R14 VDD.n486 VDD.n8 17.0005
R15 VDD.n486 VDD.n9 17.0005
R16 VDD.n486 VDD.n11 17.0005
R17 VDD.n486 VDD.n12 17.0005
R18 VDD.n486 VDD.n14 17.0005
R19 VDD.n486 VDD.n15 17.0005
R20 VDD.n486 VDD.n17 17.0005
R21 VDD.n486 VDD.n18 17.0005
R22 VDD.n486 VDD.n20 17.0005
R23 VDD.n486 VDD.n21 17.0005
R24 VDD.n486 VDD.n23 17.0005
R25 VDD.n486 VDD.n24 17.0005
R26 VDD.n486 VDD.n26 17.0005
R27 VDD.n486 VDD.n27 17.0005
R28 VDD.n486 VDD.n29 17.0005
R29 VDD.n486 VDD.n30 17.0005
R30 VDD.n486 VDD.n32 17.0005
R31 VDD.n486 VDD.n33 17.0005
R32 VDD.n486 VDD.n35 17.0005
R33 VDD.n486 VDD.n36 17.0005
R34 VDD.n486 VDD.n38 17.0005
R35 VDD.n486 VDD.n39 17.0005
R36 VDD.n486 VDD.n41 17.0005
R37 VDD.n486 VDD.n42 17.0005
R38 VDD.n486 VDD.n44 17.0005
R39 VDD.n486 VDD.n45 17.0005
R40 VDD.n486 VDD.n47 17.0005
R41 VDD.n486 VDD.n48 17.0005
R42 VDD.n486 VDD.n50 17.0005
R43 VDD.n486 VDD.n51 17.0005
R44 VDD.n486 VDD.n53 17.0005
R45 VDD.n486 VDD.n54 17.0005
R46 VDD.n486 VDD.n56 17.0005
R47 VDD.n486 VDD.n57 17.0005
R48 VDD.n486 VDD.n59 17.0005
R49 VDD.n486 VDD.n485 17.0005
R50 VDD.n461 VDD.n89 17.0005
R51 VDD.n461 VDD.n460 17.0005
R52 VDD.n457 VDD.n395 17.0005
R53 VDD.n457 VDD.n456 17.0005
R54 VDD.n454 VDD.n396 17.0005
R55 VDD.n454 VDD.n453 17.0005
R56 VDD.n451 VDD.n397 17.0005
R57 VDD.n451 VDD.n450 17.0005
R58 VDD.n448 VDD.n398 17.0005
R59 VDD.n448 VDD.n447 17.0005
R60 VDD.n445 VDD.n399 17.0005
R61 VDD.n445 VDD.n444 17.0005
R62 VDD.n442 VDD.n400 17.0005
R63 VDD.n442 VDD.n441 17.0005
R64 VDD.n439 VDD.n401 17.0005
R65 VDD.n439 VDD.n438 17.0005
R66 VDD.n436 VDD.n402 17.0005
R67 VDD.n436 VDD.n435 17.0005
R68 VDD.n433 VDD.n403 17.0005
R69 VDD.n433 VDD.n432 17.0005
R70 VDD.n430 VDD.n404 17.0005
R71 VDD.n430 VDD.n429 17.0005
R72 VDD.n427 VDD.n405 17.0005
R73 VDD.n427 VDD.n426 17.0005
R74 VDD.n424 VDD.n406 17.0005
R75 VDD.n424 VDD.n423 17.0005
R76 VDD.n421 VDD.n407 17.0005
R77 VDD.n421 VDD.n420 17.0005
R78 VDD.n418 VDD.n408 17.0005
R79 VDD.n418 VDD.n417 17.0005
R80 VDD.n415 VDD.n409 17.0005
R81 VDD.n415 VDD.n414 17.0005
R82 VDD.n412 VDD.n410 17.0005
R83 VDD.n412 VDD.n411 17.0005
R84 VDD.n483 VDD.n64 17.0005
R85 VDD.n484 VDD.n483 17.0005
R86 VDD.n207 VDD.t6 8.501
R87 VDD.n210 VDD.t6 8.501
R88 VDD.n212 VDD.t6 8.501
R89 VDD.n214 VDD.t6 8.501
R90 VDD.n216 VDD.t6 8.501
R91 VDD.n218 VDD.t6 8.501
R92 VDD.n220 VDD.t6 8.501
R93 VDD.n222 VDD.t6 8.501
R94 VDD.n224 VDD.t6 8.501
R95 VDD.n226 VDD.t6 8.501
R96 VDD.n228 VDD.t6 8.501
R97 VDD.n230 VDD.t6 8.501
R98 VDD.n232 VDD.t6 8.501
R99 VDD.n234 VDD.t6 8.501
R100 VDD.n236 VDD.t6 8.501
R101 VDD.n238 VDD.t6 8.501
R102 VDD.t6 VDD.n204 8.501
R103 VDD.n458 VDD.n86 8.501
R104 VDD.n468 VDD.n5 8.501
R105 VDD.n470 VDD.n5 8.501
R106 VDD.n67 VDD.n5 8.501
R107 VDD.n475 VDD.n5 8.501
R108 VDD.n477 VDD.n5 8.501
R109 VDD.n459 VDD.n458 8.501
R110 VDD.n455 VDD.n85 8.501
R111 VDD.n452 VDD.n84 8.501
R112 VDD.n449 VDD.n83 8.501
R113 VDD.n446 VDD.n82 8.501
R114 VDD.n443 VDD.n81 8.501
R115 VDD.n440 VDD.n80 8.501
R116 VDD.n437 VDD.n79 8.501
R117 VDD.n434 VDD.t3 8.501
R118 VDD.n431 VDD.n78 8.501
R119 VDD.n428 VDD.n77 8.501
R120 VDD.n425 VDD.n76 8.501
R121 VDD.n422 VDD.n75 8.501
R122 VDD.n419 VDD.n74 8.501
R123 VDD.n416 VDD.n73 8.501
R124 VDD.n413 VDD.n72 8.501
R125 VDD.n71 VDD.n63 8.501
R126 VDD.n482 VDD.n5 8.501
R127 VDD.n394 VDD.n90 8.501
R128 VDD.n394 VDD.n91 8.501
R129 VDD.n394 VDD.n92 8.501
R130 VDD.n394 VDD.n93 8.501
R131 VDD.n394 VDD.n94 8.501
R132 VDD.n394 VDD.n95 8.501
R133 VDD.n394 VDD.n96 8.501
R134 VDD.t4 VDD.n390 8.501
R135 VDD.t4 VDD.n128 8.501
R136 VDD.t4 VDD.n127 8.501
R137 VDD.t4 VDD.n126 8.501
R138 VDD.t4 VDD.n125 8.501
R139 VDD.t4 VDD.n124 8.501
R140 VDD.t4 VDD.n123 8.501
R141 VDD.n388 VDD.n118 8.501
R142 VDD.n131 VDD.n115 8.501
R143 VDD.n322 VDD.n114 8.501
R144 VDD.n325 VDD.n113 8.501
R145 VDD.n328 VDD.n112 8.501
R146 VDD.n331 VDD.n111 8.501
R147 VDD.n334 VDD.n110 8.501
R148 VDD.n337 VDD.n109 8.501
R149 VDD.n340 VDD.n108 8.501
R150 VDD.n343 VDD.t5 8.501
R151 VDD.n346 VDD.n107 8.501
R152 VDD.n349 VDD.n106 8.501
R153 VDD.n352 VDD.n105 8.501
R154 VDD.n355 VDD.n104 8.501
R155 VDD.n358 VDD.n103 8.501
R156 VDD.n361 VDD.n102 8.501
R157 VDD.n364 VDD.n101 8.501
R158 VDD.n366 VDD.n100 8.501
R159 VDD.n464 VDD.n85 8.5005
R160 VDD.n464 VDD.n84 8.5005
R161 VDD.n464 VDD.n83 8.5005
R162 VDD.n464 VDD.n82 8.5005
R163 VDD.n464 VDD.n81 8.5005
R164 VDD.n464 VDD.n80 8.5005
R165 VDD.n464 VDD.n79 8.5005
R166 VDD.n464 VDD.t3 8.5005
R167 VDD.n464 VDD.n78 8.5005
R168 VDD.n464 VDD.n77 8.5005
R169 VDD.n464 VDD.n76 8.5005
R170 VDD.n464 VDD.n75 8.5005
R171 VDD.n464 VDD.n74 8.5005
R172 VDD.n464 VDD.n73 8.5005
R173 VDD.n464 VDD.n72 8.5005
R174 VDD.n464 VDD.n71 8.5005
R175 VDD.n392 VDD.n118 8.5005
R176 VDD.n392 VDD.n115 8.5005
R177 VDD.n392 VDD.n114 8.5005
R178 VDD.n392 VDD.n113 8.5005
R179 VDD.n392 VDD.n112 8.5005
R180 VDD.n392 VDD.n111 8.5005
R181 VDD.n392 VDD.n110 8.5005
R182 VDD.n392 VDD.n109 8.5005
R183 VDD.n392 VDD.n108 8.5005
R184 VDD.n392 VDD.t5 8.5005
R185 VDD.n392 VDD.n107 8.5005
R186 VDD.n392 VDD.n106 8.5005
R187 VDD.n392 VDD.n105 8.5005
R188 VDD.n392 VDD.n104 8.5005
R189 VDD.n392 VDD.n103 8.5005
R190 VDD.n392 VDD.n102 8.5005
R191 VDD.n392 VDD.n101 8.5005
R192 VDD.n392 VDD.n100 8.5005
R193 VDD.n150 VDD.n121 8.49122
R194 VDD.n152 VDD.n121 8.49122
R195 VDD.n154 VDD.n121 8.49122
R196 VDD.n156 VDD.n121 8.49122
R197 VDD.n158 VDD.n121 8.49122
R198 VDD.n160 VDD.n121 8.49122
R199 VDD.n162 VDD.n121 8.49122
R200 VDD.n164 VDD.n121 8.49122
R201 VDD.n166 VDD.n121 8.49122
R202 VDD.n168 VDD.n121 8.49122
R203 VDD.n170 VDD.n121 8.49122
R204 VDD.n172 VDD.n121 8.49122
R205 VDD.n174 VDD.n121 8.49122
R206 VDD.n176 VDD.n121 8.49122
R207 VDD.n178 VDD.n121 8.49122
R208 VDD.n180 VDD.n121 8.49122
R209 VDD.n183 VDD.n121 8.49122
R210 VDD.n182 VDD.n121 8.49122
R211 VDD.n281 VDD.n184 8.49122
R212 VDD.n281 VDD.n181 8.49122
R213 VDD.n281 VDD.n179 8.49122
R214 VDD.n281 VDD.n177 8.49122
R215 VDD.n281 VDD.n175 8.49122
R216 VDD.n281 VDD.n173 8.49122
R217 VDD.n281 VDD.n171 8.49122
R218 VDD.n281 VDD.n169 8.49122
R219 VDD.n281 VDD.n165 8.49122
R220 VDD.n281 VDD.n163 8.49122
R221 VDD.n281 VDD.n161 8.49122
R222 VDD.n281 VDD.n159 8.49122
R223 VDD.n281 VDD.n157 8.49122
R224 VDD.n281 VDD.n155 8.49122
R225 VDD.n281 VDD.n153 8.49122
R226 VDD.n281 VDD.n151 8.49122
R227 VDD.n281 VDD.n147 8.49122
R228 VDD.n384 VDD.n132 8.49122
R229 VDD.n385 VDD.n384 8.49122
R230 VDD.n384 VDD.n290 8.49122
R231 VDD.n384 VDD.n292 8.49122
R232 VDD.n384 VDD.n294 8.49122
R233 VDD.n384 VDD.n296 8.49122
R234 VDD.n384 VDD.n298 8.49122
R235 VDD.n384 VDD.n300 8.49122
R236 VDD.n384 VDD.n302 8.49122
R237 VDD.n384 VDD.n304 8.49122
R238 VDD.n384 VDD.n306 8.49122
R239 VDD.n384 VDD.n308 8.49122
R240 VDD.n384 VDD.n310 8.49122
R241 VDD.n384 VDD.n312 8.49122
R242 VDD.n384 VDD.n314 8.49122
R243 VDD.n384 VDD.n316 8.49122
R244 VDD.n384 VDD.n318 8.49122
R245 VDD.n384 VDD.n383 8.49122
R246 VDD.n389 VDD.n130 8.49122
R247 VDD.n387 VDD.n386 8.49122
R248 VDD.n321 VDD.n133 8.49122
R249 VDD.n324 VDD.n323 8.49122
R250 VDD.n327 VDD.n326 8.49122
R251 VDD.n330 VDD.n329 8.49122
R252 VDD.n333 VDD.n332 8.49122
R253 VDD.n336 VDD.n335 8.49122
R254 VDD.n339 VDD.n338 8.49122
R255 VDD.n345 VDD.n344 8.49122
R256 VDD.n348 VDD.n347 8.49122
R257 VDD.n351 VDD.n350 8.49122
R258 VDD.n354 VDD.n353 8.49122
R259 VDD.n357 VDD.n356 8.49122
R260 VDD.n360 VDD.n359 8.49122
R261 VDD.n363 VDD.n362 8.49122
R262 VDD.n365 VDD.n320 8.49122
R263 VDD.n382 VDD.n367 8.49122
R264 VDD.n281 VDD.n185 8.49117
R265 VDD.n281 VDD.n186 8.49117
R266 VDD.n281 VDD.n187 8.49117
R267 VDD.n281 VDD.n188 8.49117
R268 VDD.n281 VDD.n189 8.49117
R269 VDD.n281 VDD.n190 8.49117
R270 VDD.n281 VDD.n191 8.49117
R271 VDD.n281 VDD.n192 8.49117
R272 VDD.n281 VDD.n193 8.49117
R273 VDD.n281 VDD.n194 8.49117
R274 VDD.n281 VDD.n195 8.49117
R275 VDD.n281 VDD.n196 8.49117
R276 VDD.n281 VDD.n197 8.49117
R277 VDD.n281 VDD.n198 8.49117
R278 VDD.n281 VDD.n199 8.49117
R279 VDD.n281 VDD.n200 8.49117
R280 VDD.n281 VDD.n201 8.49117
R281 VDD.n281 VDD.n280 8.49117
R282 VDD.n278 VDD.n276 8.49117
R283 VDD.n278 VDD.n272 8.49117
R284 VDD.n278 VDD.n271 8.49117
R285 VDD.n278 VDD.n270 8.49117
R286 VDD.n278 VDD.n269 8.49117
R287 VDD.n278 VDD.n268 8.49117
R288 VDD.n278 VDD.n267 8.49117
R289 VDD.n278 VDD.n265 8.49117
R290 VDD.n278 VDD.n264 8.49117
R291 VDD.n278 VDD.n263 8.49117
R292 VDD.n278 VDD.n262 8.49117
R293 VDD.n278 VDD.n261 8.49117
R294 VDD.n278 VDD.n260 8.49117
R295 VDD.n278 VDD.n259 8.49117
R296 VDD.n278 VDD.n202 8.49117
R297 VDD.n279 VDD.n278 8.49117
R298 VDD.n281 VDD.n167 8.48777
R299 VDD.n342 VDD.n341 8.48777
R300 VDD.n278 VDD.n266 8.48771
R301 VDD.n255 VDD.n209 8.46995
R302 VDD.n254 VDD.n211 8.46995
R303 VDD.n253 VDD.n213 8.46995
R304 VDD.n252 VDD.n215 8.46995
R305 VDD.n251 VDD.n217 8.46995
R306 VDD.n250 VDD.n219 8.46995
R307 VDD.n249 VDD.n221 8.46995
R308 VDD.n247 VDD.n225 8.46995
R309 VDD.n246 VDD.n227 8.46995
R310 VDD.n245 VDD.n229 8.46995
R311 VDD.n244 VDD.n231 8.46995
R312 VDD.n243 VDD.n233 8.46995
R313 VDD.n242 VDD.n235 8.46995
R314 VDD.n241 VDD.n237 8.46995
R315 VDD.n240 VDD.n239 8.46995
R316 VDD.n464 VDD.n463 8.46995
R317 VDD.n467 VDD.n466 8.46995
R318 VDD.n469 VDD.n68 8.46995
R319 VDD.n472 VDD.n471 8.46995
R320 VDD.n476 VDD.n66 8.46995
R321 VDD.n479 VDD.n478 8.46995
R322 VDD.n368 VDD.n98 8.46995
R323 VDD.n370 VDD.n369 8.46995
R324 VDD.n372 VDD.n371 8.46995
R325 VDD.n376 VDD.n375 8.46995
R326 VDD.n378 VDD.n377 8.46995
R327 VDD.n380 VDD.n379 8.46995
R328 VDD.n145 VDD.n129 8.46995
R329 VDD.n144 VDD.n134 8.46995
R330 VDD.n143 VDD.n135 8.46995
R331 VDD.n141 VDD.n137 8.46995
R332 VDD.n140 VDD.n138 8.46995
R333 VDD.n139 VDD.n119 8.46995
R334 VDD.n248 VDD.n223 8.45904
R335 VDD.n474 VDD.n473 8.44635
R336 VDD.n374 VDD.n373 8.44635
R337 VDD.n142 VDD.n136 8.44635
R338 VDD.n65 VDD.n5 5.66778
R339 VDD.n394 VDD.n393 5.66767
R340 VDD.n391 VDD.t4 5.66767
R341 VDD.n481 VDD.n480 5.62487
R342 VDD VDD.n490 4.8921
R343 VDD.n384 VDD.n288 4.251
R344 VDD.n384 VDD.n289 4.251
R345 VDD.n384 VDD.n291 4.251
R346 VDD.n384 VDD.n293 4.251
R347 VDD.n384 VDD.n295 4.251
R348 VDD.n384 VDD.n297 4.251
R349 VDD.n384 VDD.n299 4.251
R350 VDD.n384 VDD.n301 4.251
R351 VDD.n384 VDD.n303 4.251
R352 VDD.n384 VDD.n305 4.251
R353 VDD.n384 VDD.n307 4.251
R354 VDD.n384 VDD.n309 4.251
R355 VDD.n384 VDD.n311 4.251
R356 VDD.n384 VDD.n313 4.251
R357 VDD.n384 VDD.n315 4.251
R358 VDD.n384 VDD.n317 4.251
R359 VDD.n384 VDD.n319 4.251
R360 VDD.n486 VDD.n10 4.251
R361 VDD.n486 VDD.n13 4.251
R362 VDD.n486 VDD.n16 4.251
R363 VDD.n486 VDD.n19 4.251
R364 VDD.n486 VDD.n22 4.251
R365 VDD.n486 VDD.n25 4.251
R366 VDD.n486 VDD.n28 4.251
R367 VDD.n486 VDD.n31 4.251
R368 VDD.n486 VDD.n34 4.251
R369 VDD.n486 VDD.n37 4.251
R370 VDD.n486 VDD.n40 4.251
R371 VDD.n486 VDD.n43 4.251
R372 VDD.n486 VDD.n46 4.251
R373 VDD.n486 VDD.n49 4.251
R374 VDD.n486 VDD.n52 4.251
R375 VDD.n486 VDD.n55 4.251
R376 VDD.n486 VDD.n58 4.251
R377 VDD.n69 VDD.n5 4.251
R378 VDD.n116 VDD.t9 3.60093
R379 VDD.n70 VDD.t8 3.60093
R380 VDD.n274 VDD.t7 3.49176
R381 VDD.n208 VDD.t10 3.41143
R382 VDD.n3 VDD.t2 3.33221
R383 VDD.n1 VDD.t1 3.33221
R384 VDD.n257 VDD.n206 3.3033
R385 VDD.n488 VDD.n2 3.28157
R386 VDD.n392 VDD.n117 2.7239
R387 VDD.n489 VDD.n488 2.71665
R388 VDD.n368 VDD.n99 1.39307
R389 VDD.n466 VDD.n465 1.3904
R390 VDD.n88 VDD.n6 1.38453
R391 VDD.n287 VDD.n286 1.38399
R392 VDD.n284 VDD.n283 1.38171
R393 VDD.n285 VDD.n284 1.37353
R394 VDD.n381 VDD.n287 1.37148
R395 VDD.n61 VDD.n6 1.36761
R396 VDD.n490 VDD.n0 1.34948
R397 VDD.n465 VDD.n70 1.32003
R398 VDD.n116 VDD.n99 1.31097
R399 VDD.n60 VDD.n0 1.26234
R400 VDD.n463 VDD.n462 1.09276
R401 VDD.n240 VDD.n205 1.05409
R402 VDD.n488 VDD.n4 0.974415
R403 VDD.n257 VDD.n256 0.968216
R404 VDD.n285 VDD.n146 0.914142
R405 VDD.n462 VDD.n87 0.903574
R406 VDD.n384 VDD.n122 0.895737
R407 VDD.n384 VDD.n97 0.895737
R408 VDD.n486 VDD.n7 0.895737
R409 VDD.n487 VDD.n486 0.895737
R410 VDD.n461 VDD.n394 0.895237
R411 VDD.n256 VDD.n255 0.892863
R412 VDD.n205 VDD.n149 0.869243
R413 VDD.n256 VDD.n208 0.860771
R414 VDD.n283 VDD.n282 0.833133
R415 VDD.n282 VDD.n149 0.825684
R416 VDD.n203 VDD.n146 0.788085
R417 VDD.n60 VDD.n4 0.780249
R418 VDD.n281 VDD.n146 0.779936
R419 VDD.n4 VDD.n3 0.760719
R420 VDD.n282 VDD.n281 0.709867
R421 VDD.n278 VDD.n205 0.646839
R422 VDD.n462 VDD.n461 0.590135
R423 VDD.n139 VDD.n117 0.449724
R424 VDD.n2 VDD.n1 0.40082
R425 VDD.n117 VDD.n116 0.376813
R426 VDD.n490 VDD.n489 0.357963
R427 VDD.n3 VDD.n2 0.347606
R428 VDD.n489 VDD.n1 0.332655
R429 VDD.n206 VDD.n203 0.31697
R430 VDD.n374 VDD.n372 0.297565
R431 VDD.n376 VDD.n374 0.297565
R432 VDD.n142 VDD.n141 0.297565
R433 VDD.n143 VDD.n142 0.297565
R434 VDD.n473 VDD.n472 0.297565
R435 VDD.n473 VDD.n66 0.297565
R436 VDD.n208 VDD.n206 0.29498
R437 VDD.n480 VDD.n479 0.294636
R438 VDD.n249 VDD.n248 0.272189
R439 VDD.n248 VDD.n247 0.272189
R440 VDD.n488 VDD.t0 0.266125
R441 VDD.n370 VDD.n368 0.250378
R442 VDD.n372 VDD.n370 0.250378
R443 VDD.n378 VDD.n376 0.250378
R444 VDD.n380 VDD.n378 0.250378
R445 VDD.n140 VDD.n139 0.250378
R446 VDD.n141 VDD.n140 0.250378
R447 VDD.n144 VDD.n143 0.250378
R448 VDD.n145 VDD.n144 0.250378
R449 VDD.n466 VDD.n68 0.250378
R450 VDD.n472 VDD.n68 0.250378
R451 VDD.n479 VDD.n66 0.250378
R452 VDD.n255 VDD.n254 0.250378
R453 VDD.n254 VDD.n253 0.250378
R454 VDD.n253 VDD.n252 0.250378
R455 VDD.n252 VDD.n251 0.250378
R456 VDD.n251 VDD.n250 0.250378
R457 VDD.n250 VDD.n249 0.250378
R458 VDD.n247 VDD.n246 0.250378
R459 VDD.n246 VDD.n245 0.250378
R460 VDD.n245 VDD.n244 0.250378
R461 VDD.n244 VDD.n243 0.250378
R462 VDD.n243 VDD.n242 0.250378
R463 VDD.n242 VDD.n241 0.250378
R464 VDD.n241 VDD.n240 0.250378
R465 VDD.n258 VDD.t6 0.23759
R466 VDD.n465 VDD.n464 0.162269
R467 VDD.t4 VDD.n121 0.161627
R468 VDD.n281 VDD.n120 0.161377
R469 VDD.n392 VDD.n99 0.159686
R470 VDD.n463 VDD.n70 0.141939
R471 VDD.n381 VDD.n380 0.132772
R472 VDD.n286 VDD.n145 0.132772
R473 VDD.n488 VDD.n0 0.102833
R474 VDD.n480 VDD.n62 0.0888312
R475 VDD.n381 VDD.n87 0.0753691
R476 VDD.n286 VDD.n285 0.0753691
R477 VDD.n403 VDD.n33 0.0529084
R478 VDD.n266 VDD.n194 0.0477514
R479 VDD.n266 VDD.n193 0.0477514
R480 VDD.n341 VDD.n304 0.0475096
R481 VDD.n167 VDD.n166 0.0475096
R482 VDD.n168 VDD.n167 0.0475096
R483 VDD.n341 VDD.n302 0.0475096
R484 VDD.n280 VDD.n279 0.0408229
R485 VDD.n280 VDD.n202 0.0408229
R486 VDD.n259 VDD.n201 0.0408229
R487 VDD.n260 VDD.n200 0.0408229
R488 VDD.n261 VDD.n199 0.0408229
R489 VDD.n262 VDD.n198 0.0408229
R490 VDD.n263 VDD.n197 0.0408229
R491 VDD.n264 VDD.n196 0.0408229
R492 VDD.n265 VDD.n195 0.0408229
R493 VDD.n267 VDD.n193 0.0408229
R494 VDD.n268 VDD.n192 0.0408229
R495 VDD.n269 VDD.n191 0.0408229
R496 VDD.n270 VDD.n190 0.0408229
R497 VDD.n271 VDD.n189 0.0408229
R498 VDD.n272 VDD.n188 0.0408229
R499 VDD.n276 VDD.n186 0.0408229
R500 VDD.n276 VDD.n185 0.0408229
R501 VDD.n272 VDD.n187 0.0408229
R502 VDD.n271 VDD.n188 0.0408229
R503 VDD.n270 VDD.n189 0.0408229
R504 VDD.n269 VDD.n190 0.0408229
R505 VDD.n268 VDD.n191 0.0408229
R506 VDD.n267 VDD.n192 0.0408229
R507 VDD.n265 VDD.n194 0.0408229
R508 VDD.n264 VDD.n195 0.0408229
R509 VDD.n263 VDD.n196 0.0408229
R510 VDD.n262 VDD.n197 0.0408229
R511 VDD.n261 VDD.n198 0.0408229
R512 VDD.n260 VDD.n199 0.0408229
R513 VDD.n259 VDD.n200 0.0408229
R514 VDD.n202 VDD.n201 0.0408229
R515 VDD.n383 VDD.n320 0.0406172
R516 VDD.n362 VDD.n318 0.0406172
R517 VDD.n359 VDD.n316 0.0406172
R518 VDD.n356 VDD.n314 0.0406172
R519 VDD.n353 VDD.n312 0.0406172
R520 VDD.n350 VDD.n310 0.0406172
R521 VDD.n347 VDD.n308 0.0406172
R522 VDD.n344 VDD.n306 0.0406172
R523 VDD.n338 VDD.n302 0.0406172
R524 VDD.n335 VDD.n300 0.0406172
R525 VDD.n332 VDD.n298 0.0406172
R526 VDD.n329 VDD.n296 0.0406172
R527 VDD.n326 VDD.n294 0.0406172
R528 VDD.n323 VDD.n292 0.0406172
R529 VDD.n290 VDD.n133 0.0406172
R530 VDD.n386 VDD.n385 0.0406172
R531 VDD.n132 VDD.n130 0.0406172
R532 VDD.n150 VDD.n147 0.0406172
R533 VDD.n151 VDD.n150 0.0406172
R534 VDD.n153 VDD.n152 0.0406172
R535 VDD.n155 VDD.n154 0.0406172
R536 VDD.n157 VDD.n156 0.0406172
R537 VDD.n159 VDD.n158 0.0406172
R538 VDD.n161 VDD.n160 0.0406172
R539 VDD.n163 VDD.n162 0.0406172
R540 VDD.n165 VDD.n164 0.0406172
R541 VDD.n169 VDD.n168 0.0406172
R542 VDD.n171 VDD.n170 0.0406172
R543 VDD.n173 VDD.n172 0.0406172
R544 VDD.n175 VDD.n174 0.0406172
R545 VDD.n177 VDD.n176 0.0406172
R546 VDD.n179 VDD.n178 0.0406172
R547 VDD.n181 VDD.n180 0.0406172
R548 VDD.n184 VDD.n183 0.0406172
R549 VDD.n152 VDD.n151 0.0406172
R550 VDD.n154 VDD.n153 0.0406172
R551 VDD.n156 VDD.n155 0.0406172
R552 VDD.n158 VDD.n157 0.0406172
R553 VDD.n160 VDD.n159 0.0406172
R554 VDD.n162 VDD.n161 0.0406172
R555 VDD.n164 VDD.n163 0.0406172
R556 VDD.n166 VDD.n165 0.0406172
R557 VDD.n170 VDD.n169 0.0406172
R558 VDD.n172 VDD.n171 0.0406172
R559 VDD.n174 VDD.n173 0.0406172
R560 VDD.n176 VDD.n175 0.0406172
R561 VDD.n178 VDD.n177 0.0406172
R562 VDD.n180 VDD.n179 0.0406172
R563 VDD.n183 VDD.n181 0.0406172
R564 VDD.n184 VDD.n182 0.0406172
R565 VDD.n386 VDD.n132 0.0406172
R566 VDD.n385 VDD.n133 0.0406172
R567 VDD.n323 VDD.n290 0.0406172
R568 VDD.n326 VDD.n292 0.0406172
R569 VDD.n329 VDD.n294 0.0406172
R570 VDD.n332 VDD.n296 0.0406172
R571 VDD.n335 VDD.n298 0.0406172
R572 VDD.n338 VDD.n300 0.0406172
R573 VDD.n344 VDD.n304 0.0406172
R574 VDD.n347 VDD.n306 0.0406172
R575 VDD.n350 VDD.n308 0.0406172
R576 VDD.n353 VDD.n310 0.0406172
R577 VDD.n356 VDD.n312 0.0406172
R578 VDD.n359 VDD.n314 0.0406172
R579 VDD.n362 VDD.n316 0.0406172
R580 VDD.n320 VDD.n318 0.0406172
R581 VDD.n383 VDD.n382 0.0406172
R582 VDD.n277 VDD.n149 0.0398684
R583 VDD.n283 VDD.n148 0.0396623
R584 VDD.n485 VDD.n62 0.0390864
R585 VDD.n484 VDD.n59 0.0390864
R586 VDD.n64 VDD.n57 0.0390864
R587 VDD.n411 VDD.n56 0.0390864
R588 VDD.n410 VDD.n54 0.0390864
R589 VDD.n414 VDD.n53 0.0390864
R590 VDD.n409 VDD.n51 0.0390864
R591 VDD.n417 VDD.n50 0.0390864
R592 VDD.n408 VDD.n48 0.0390864
R593 VDD.n420 VDD.n47 0.0390864
R594 VDD.n407 VDD.n45 0.0390864
R595 VDD.n423 VDD.n44 0.0390864
R596 VDD.n406 VDD.n42 0.0390864
R597 VDD.n426 VDD.n41 0.0390864
R598 VDD.n405 VDD.n39 0.0390864
R599 VDD.n429 VDD.n38 0.0390864
R600 VDD.n404 VDD.n36 0.0390864
R601 VDD.n432 VDD.n35 0.0390864
R602 VDD.n435 VDD.n32 0.0390864
R603 VDD.n402 VDD.n30 0.0390864
R604 VDD.n438 VDD.n29 0.0390864
R605 VDD.n401 VDD.n27 0.0390864
R606 VDD.n441 VDD.n26 0.0390864
R607 VDD.n400 VDD.n24 0.0390864
R608 VDD.n444 VDD.n23 0.0390864
R609 VDD.n399 VDD.n21 0.0390864
R610 VDD.n447 VDD.n20 0.0390864
R611 VDD.n398 VDD.n18 0.0390864
R612 VDD.n450 VDD.n17 0.0390864
R613 VDD.n397 VDD.n15 0.0390864
R614 VDD.n453 VDD.n14 0.0390864
R615 VDD.n396 VDD.n12 0.0390864
R616 VDD.n456 VDD.n11 0.0390864
R617 VDD.n395 VDD.n9 0.0390864
R618 VDD.n460 VDD.n8 0.0390864
R619 VDD.n89 VDD.n88 0.0390864
R620 VDD.n275 VDD.n274 0.0253947
R621 VDD.n273 VDD.n187 0.0206614
R622 VDD.n277 VDD.n185 0.0206614
R623 VDD.n275 VDD.n186 0.0206614
R624 VDD.n279 VDD.n203 0.0206614
R625 VDD.n382 VDD.n381 0.0205586
R626 VDD.n286 VDD.n130 0.0205586
R627 VDD.n182 VDD.n148 0.0205586
R628 VDD.n285 VDD.n147 0.0205586
R629 VDD.n61 VDD.n60 0.0177775
R630 VDD.n274 VDD.n273 0.0149737
R631 VDD.n486 VDD.n6 0.00876291
R632 VDD.n384 VDD.n287 0.00865237
R633 VDD.n284 VDD.n121 0.00861664
R634 VDD.n478 VDD.n65 0.00166667
R635 VDD.n278 VDD.n258 0.00150696
R636 VDD.n258 VDD.n257 0.00149303
R637 VDD.n481 VDD.n65 0.00133332
R638 VDD.n62 VDD.n61 0.00107592
R639 VDD.n485 VDD.n484 0.00107592
R640 VDD.n64 VDD.n59 0.00107592
R641 VDD.n411 VDD.n57 0.00107592
R642 VDD.n410 VDD.n56 0.00107592
R643 VDD.n414 VDD.n54 0.00107592
R644 VDD.n409 VDD.n53 0.00107592
R645 VDD.n417 VDD.n51 0.00107592
R646 VDD.n408 VDD.n50 0.00107592
R647 VDD.n420 VDD.n48 0.00107592
R648 VDD.n407 VDD.n47 0.00107592
R649 VDD.n423 VDD.n45 0.00107592
R650 VDD.n406 VDD.n44 0.00107592
R651 VDD.n426 VDD.n42 0.00107592
R652 VDD.n405 VDD.n41 0.00107592
R653 VDD.n429 VDD.n39 0.00107592
R654 VDD.n404 VDD.n38 0.00107592
R655 VDD.n432 VDD.n36 0.00107592
R656 VDD.n403 VDD.n35 0.00107592
R657 VDD.n435 VDD.n33 0.00107592
R658 VDD.n402 VDD.n32 0.00107592
R659 VDD.n438 VDD.n30 0.00107592
R660 VDD.n401 VDD.n29 0.00107592
R661 VDD.n441 VDD.n27 0.00107592
R662 VDD.n400 VDD.n26 0.00107592
R663 VDD.n444 VDD.n24 0.00107592
R664 VDD.n399 VDD.n23 0.00107592
R665 VDD.n447 VDD.n21 0.00107592
R666 VDD.n398 VDD.n20 0.00107592
R667 VDD.n450 VDD.n18 0.00107592
R668 VDD.n397 VDD.n17 0.00107592
R669 VDD.n453 VDD.n15 0.00107592
R670 VDD.n396 VDD.n14 0.00107592
R671 VDD.n456 VDD.n12 0.00107592
R672 VDD.n395 VDD.n11 0.00107592
R673 VDD.n460 VDD.n9 0.00107592
R674 VDD.n89 VDD.n8 0.00107592
R675 VDD.n88 VDD.n87 0.00107592
R676 VDD.n393 VDD.n98 0.001
R677 VDD.n98 VDD.n90 0.001
R678 VDD.n369 VDD.n91 0.001
R679 VDD.n371 VDD.n92 0.001
R680 VDD.n373 VDD.n93 0.001
R681 VDD.n375 VDD.n94 0.001
R682 VDD.n377 VDD.n95 0.001
R683 VDD.n379 VDD.n96 0.001
R684 VDD.n366 VDD.n365 0.001
R685 VDD.n364 VDD.n363 0.001
R686 VDD.n361 VDD.n360 0.001
R687 VDD.n358 VDD.n357 0.001
R688 VDD.n355 VDD.n354 0.001
R689 VDD.n352 VDD.n351 0.001
R690 VDD.n349 VDD.n348 0.001
R691 VDD.n346 VDD.n345 0.001
R692 VDD.n343 VDD.n342 0.001
R693 VDD.n340 VDD.n339 0.001
R694 VDD.n337 VDD.n336 0.001
R695 VDD.n334 VDD.n333 0.001
R696 VDD.n331 VDD.n330 0.001
R697 VDD.n328 VDD.n327 0.001
R698 VDD.n325 VDD.n324 0.001
R699 VDD.n322 VDD.n321 0.001
R700 VDD.n387 VDD.n131 0.001
R701 VDD.n389 VDD.n388 0.001
R702 VDD.n391 VDD.n119 0.001
R703 VDD.n123 VDD.n119 0.001
R704 VDD.n138 VDD.n124 0.001
R705 VDD.n137 VDD.n125 0.001
R706 VDD.n136 VDD.n126 0.001
R707 VDD.n135 VDD.n127 0.001
R708 VDD.n134 VDD.n128 0.001
R709 VDD.n390 VDD.n129 0.001
R710 VDD.n467 VDD.n69 0.001
R711 VDD.n468 VDD.n467 0.001
R712 VDD.n470 VDD.n469 0.001
R713 VDD.n471 VDD.n67 0.001
R714 VDD.n475 VDD.n474 0.001
R715 VDD.n477 VDD.n476 0.001
R716 VDD.n483 VDD.n482 0.001
R717 VDD.n412 VDD.n63 0.001
R718 VDD.n415 VDD.n413 0.001
R719 VDD.n418 VDD.n416 0.001
R720 VDD.n421 VDD.n419 0.001
R721 VDD.n424 VDD.n422 0.001
R722 VDD.n427 VDD.n425 0.001
R723 VDD.n430 VDD.n428 0.001
R724 VDD.n433 VDD.n431 0.001
R725 VDD.n436 VDD.n434 0.001
R726 VDD.n439 VDD.n437 0.001
R727 VDD.n442 VDD.n440 0.001
R728 VDD.n445 VDD.n443 0.001
R729 VDD.n448 VDD.n446 0.001
R730 VDD.n451 VDD.n449 0.001
R731 VDD.n454 VDD.n452 0.001
R732 VDD.n457 VDD.n455 0.001
R733 VDD.n461 VDD.n459 0.001
R734 VDD.n461 VDD.n86 0.001
R735 VDD.n257 VDD.n207 0.001
R736 VDD.n210 VDD.n209 0.001
R737 VDD.n212 VDD.n211 0.001
R738 VDD.n214 VDD.n213 0.001
R739 VDD.n216 VDD.n215 0.001
R740 VDD.n218 VDD.n217 0.001
R741 VDD.n220 VDD.n219 0.001
R742 VDD.n222 VDD.n221 0.001
R743 VDD.n224 VDD.n223 0.001
R744 VDD.n226 VDD.n225 0.001
R745 VDD.n228 VDD.n227 0.001
R746 VDD.n230 VDD.n229 0.001
R747 VDD.n232 VDD.n231 0.001
R748 VDD.n234 VDD.n233 0.001
R749 VDD.n236 VDD.n235 0.001
R750 VDD.n238 VDD.n237 0.001
R751 VDD.n239 VDD.n204 0.001
R752 VDD.t6 VDD.n120 0.001
R753 VDD.t4 VDD.n120 0.001
R754 VDD.n209 VDD.n207 0.001
R755 VDD.n211 VDD.n210 0.001
R756 VDD.n213 VDD.n212 0.001
R757 VDD.n215 VDD.n214 0.001
R758 VDD.n217 VDD.n216 0.001
R759 VDD.n219 VDD.n218 0.001
R760 VDD.n221 VDD.n220 0.001
R761 VDD.n223 VDD.n222 0.001
R762 VDD.n225 VDD.n224 0.001
R763 VDD.n227 VDD.n226 0.001
R764 VDD.n229 VDD.n228 0.001
R765 VDD.n231 VDD.n230 0.001
R766 VDD.n233 VDD.n232 0.001
R767 VDD.n235 VDD.n234 0.001
R768 VDD.n237 VDD.n236 0.001
R769 VDD.n239 VDD.n238 0.001
R770 VDD.n278 VDD.n204 0.001
R771 VDD.n487 VDD.n5 0.001
R772 VDD.n71 VDD.n58 0.001
R773 VDD.n72 VDD.n55 0.001
R774 VDD.n73 VDD.n52 0.001
R775 VDD.n74 VDD.n49 0.001
R776 VDD.n75 VDD.n46 0.001
R777 VDD.n76 VDD.n43 0.001
R778 VDD.n77 VDD.n40 0.001
R779 VDD.n78 VDD.n37 0.001
R780 VDD.t3 VDD.n34 0.001
R781 VDD.n79 VDD.n31 0.001
R782 VDD.n80 VDD.n28 0.001
R783 VDD.n81 VDD.n25 0.001
R784 VDD.n82 VDD.n22 0.001
R785 VDD.n83 VDD.n19 0.001
R786 VDD.n84 VDD.n16 0.001
R787 VDD.n85 VDD.n13 0.001
R788 VDD.n458 VDD.n10 0.001
R789 VDD.n394 VDD.n7 0.001
R790 VDD.n100 VDD.n97 0.001
R791 VDD.n319 VDD.n101 0.001
R792 VDD.n317 VDD.n102 0.001
R793 VDD.n315 VDD.n103 0.001
R794 VDD.n313 VDD.n104 0.001
R795 VDD.n311 VDD.n105 0.001
R796 VDD.n309 VDD.n106 0.001
R797 VDD.n307 VDD.n107 0.001
R798 VDD.n305 VDD.t5 0.001
R799 VDD.n303 VDD.n108 0.001
R800 VDD.n301 VDD.n109 0.001
R801 VDD.n299 VDD.n110 0.001
R802 VDD.n297 VDD.n111 0.001
R803 VDD.n295 VDD.n112 0.001
R804 VDD.n293 VDD.n113 0.001
R805 VDD.n291 VDD.n114 0.001
R806 VDD.n289 VDD.n115 0.001
R807 VDD.n288 VDD.n118 0.001
R808 VDD.t4 VDD.n122 0.001
R809 VDD.n122 VDD.n118 0.001
R810 VDD.n288 VDD.n115 0.001
R811 VDD.n289 VDD.n114 0.001
R812 VDD.n291 VDD.n113 0.001
R813 VDD.n293 VDD.n112 0.001
R814 VDD.n295 VDD.n111 0.001
R815 VDD.n297 VDD.n110 0.001
R816 VDD.n299 VDD.n109 0.001
R817 VDD.n301 VDD.n108 0.001
R818 VDD.n303 VDD.t5 0.001
R819 VDD.n305 VDD.n107 0.001
R820 VDD.n307 VDD.n106 0.001
R821 VDD.n309 VDD.n105 0.001
R822 VDD.n311 VDD.n104 0.001
R823 VDD.n313 VDD.n103 0.001
R824 VDD.n315 VDD.n102 0.001
R825 VDD.n317 VDD.n101 0.001
R826 VDD.n319 VDD.n100 0.001
R827 VDD.n394 VDD.n97 0.001
R828 VDD.n458 VDD.n7 0.001
R829 VDD.n85 VDD.n10 0.001
R830 VDD.n84 VDD.n13 0.001
R831 VDD.n83 VDD.n16 0.001
R832 VDD.n82 VDD.n19 0.001
R833 VDD.n81 VDD.n22 0.001
R834 VDD.n80 VDD.n25 0.001
R835 VDD.n79 VDD.n28 0.001
R836 VDD.t3 VDD.n31 0.001
R837 VDD.n78 VDD.n34 0.001
R838 VDD.n77 VDD.n37 0.001
R839 VDD.n76 VDD.n40 0.001
R840 VDD.n75 VDD.n43 0.001
R841 VDD.n74 VDD.n46 0.001
R842 VDD.n73 VDD.n49 0.001
R843 VDD.n72 VDD.n52 0.001
R844 VDD.n71 VDD.n55 0.001
R845 VDD.n58 VDD.n5 0.001
R846 VDD.t0 VDD.n487 0.001
R847 VDD.n464 VDD.n86 0.001
R848 VDD.n464 VDD.n69 0.001
R849 VDD.n469 VDD.n468 0.001
R850 VDD.n471 VDD.n470 0.001
R851 VDD.n474 VDD.n67 0.001
R852 VDD.n476 VDD.n475 0.001
R853 VDD.n478 VDD.n477 0.001
R854 VDD.n459 VDD.n457 0.001
R855 VDD.n455 VDD.n454 0.001
R856 VDD.n452 VDD.n451 0.001
R857 VDD.n449 VDD.n448 0.001
R858 VDD.n446 VDD.n445 0.001
R859 VDD.n443 VDD.n442 0.001
R860 VDD.n440 VDD.n439 0.001
R861 VDD.n437 VDD.n436 0.001
R862 VDD.n434 VDD.n433 0.001
R863 VDD.n431 VDD.n430 0.001
R864 VDD.n428 VDD.n427 0.001
R865 VDD.n425 VDD.n424 0.001
R866 VDD.n422 VDD.n421 0.001
R867 VDD.n419 VDD.n418 0.001
R868 VDD.n416 VDD.n415 0.001
R869 VDD.n413 VDD.n412 0.001
R870 VDD.n483 VDD.n63 0.001
R871 VDD.n482 VDD.n481 0.001
R872 VDD.n392 VDD.n391 0.001
R873 VDD.n393 VDD.n392 0.001
R874 VDD.n369 VDD.n90 0.001
R875 VDD.n371 VDD.n91 0.001
R876 VDD.n373 VDD.n92 0.001
R877 VDD.n375 VDD.n93 0.001
R878 VDD.n377 VDD.n94 0.001
R879 VDD.n379 VDD.n95 0.001
R880 VDD.n129 VDD.n128 0.001
R881 VDD.n134 VDD.n127 0.001
R882 VDD.n135 VDD.n126 0.001
R883 VDD.n136 VDD.n125 0.001
R884 VDD.n137 VDD.n124 0.001
R885 VDD.n138 VDD.n123 0.001
R886 VDD.n390 VDD.n389 0.001
R887 VDD.n388 VDD.n387 0.001
R888 VDD.n321 VDD.n131 0.001
R889 VDD.n324 VDD.n322 0.001
R890 VDD.n327 VDD.n325 0.001
R891 VDD.n330 VDD.n328 0.001
R892 VDD.n333 VDD.n331 0.001
R893 VDD.n336 VDD.n334 0.001
R894 VDD.n339 VDD.n337 0.001
R895 VDD.n342 VDD.n340 0.001
R896 VDD.n345 VDD.n343 0.001
R897 VDD.n348 VDD.n346 0.001
R898 VDD.n351 VDD.n349 0.001
R899 VDD.n354 VDD.n352 0.001
R900 VDD.n357 VDD.n355 0.001
R901 VDD.n360 VDD.n358 0.001
R902 VDD.n363 VDD.n361 0.001
R903 VDD.n365 VDD.n364 0.001
R904 VDD.n367 VDD.n366 0.001
R905 VDD.n367 VDD.n96 0.001
R906 VSS.n432 VSS.n431 713.5
R907 VSS.n486 VSS.n91 701.389
R908 VSS.n477 VSS.n152 681.91
R909 VSS.n482 VSS.n481 670.619
R910 VSS.t4 VSS.n79 270.003
R911 VSS.n90 VSS.n79 191.556
R912 VSS.n90 VSS.t2 78.0239
R913 VSS.n91 VSS.n90 71.7258
R914 VSS.n62 VSS.t9 69.8566
R915 VSS.n183 VSS.t1 69.8566
R916 VSS.n281 VSS.t0 69.827
R917 VSS.t7 VSS.n362 62.2096
R918 VSS.n388 VSS.t7 59.6704
R919 VSS.t9 VSS.n23 57.1555
R920 VSS.t1 VSS.n138 57.1555
R921 VSS.t0 VSS.n242 57.1313
R922 VSS.n90 VSS.n89 43.7635
R923 VSS.n80 VSS.t4 27.7377
R924 VSS.n88 VSS.t2 27.7352
R925 VSS.n361 VSS.n343 24.3947